<?xml version="1.0" encoding="UTF-8"?>

<!-- generated on 2023-03-24 19:03:50 by Eclipse SUMO netedit Version 1.10.0
<configuration xmlns:xsi="http://www.w3.org/2001/XMLSchema-instance" xsi:noNamespaceSchemaLocation="http://sumo.dlr.de/xsd/netconvertConfiguration.xsd">

    <input>
        <sumo-net-file value="D:\PycharmProjects\MARL-TrafficLight-master\net\4x4-Lucas\4x4.net.xml"/>
    </input>

    <output>
        <output-file value="D:\PycharmProjects\MARL-TrafficLight-master\net\4x4-Lucas\4x4.net.xml"/>
    </output>

    <processing>
        <geometry.min-radius.fix.railways value="false"/>
        <geometry.max-grade.fix value="false"/>
        <offset.disable-normalization value="true"/>
        <lefthand value="false"/>
    </processing>

    <junctions>
        <no-turnarounds value="true"/>
        <junctions.corner-detail value="0"/>
        <junctions.limit-turn-speed value="-1"/>
        <rectangular-lane-cut value="false"/>
    </junctions>

    <pedestrian>
        <walkingareas value="false"/>
    </pedestrian>

    <report>
        <aggregate-warnings value="5"/>
    </report>

</configuration>
-->

<net version="1.9" xmlns:xsi="http://www.w3.org/2001/XMLSchema-instance" xsi:noNamespaceSchemaLocation="http://sumo.dlr.de/xsd/net_file.xsd">

    <location netOffset="-1850.00,-2900.00" convBoundary="0.00,0.00,750.00,750.00" origBoundary="1850.00,2900.00,2600.00,3650.00" projParameter="!"/>

    <edge id=":0_0" function="internal">
        <lane id=":0_0_0" index="0" speed="13.90" length="14.40" shape="145.20,604.00 145.20,589.60"/>
        <lane id=":0_0_1" index="1" speed="13.90" length="14.40" shape="148.40,604.00 148.40,589.60"/>
    </edge>
    <edge id=":0_2" function="internal">
        <lane id=":0_2_0" index="0" speed="13.90" length="9.03" shape="148.40,604.00 148.75,601.55 149.80,599.80 151.55,598.75 154.00,598.40"/>
    </edge>
    <edge id=":0_3" function="internal">
        <lane id=":0_3_0" index="0" speed="13.90" length="9.03" shape="139.60,595.20 142.05,594.85 143.80,593.80 144.85,592.05 145.20,589.60"/>
    </edge>
    <edge id=":0_4" function="internal">
        <lane id=":0_4_0" index="0" speed="13.90" length="14.40" shape="139.60,595.20 154.00,595.20"/>
        <lane id=":0_4_1" index="1" speed="13.90" length="14.40" shape="139.60,598.40 154.00,598.40"/>
    </edge>
    <edge id=":1_0" function="internal">
        <lane id=":1_0_0" index="0" speed="13.90" length="14.40" shape="295.20,604.00 295.20,589.60"/>
        <lane id=":1_0_1" index="1" speed="13.90" length="14.40" shape="298.40,604.00 298.40,589.60"/>
    </edge>
    <edge id=":1_2" function="internal">
        <lane id=":1_2_0" index="0" speed="13.90" length="9.03" shape="298.40,604.00 298.75,601.55 299.80,599.80 301.55,598.75 304.00,598.40"/>
    </edge>
    <edge id=":1_3" function="internal">
        <lane id=":1_3_0" index="0" speed="13.90" length="9.03" shape="289.60,595.20 292.05,594.85 293.80,593.80 294.85,592.05 295.20,589.60"/>
    </edge>
    <edge id=":1_4" function="internal">
        <lane id=":1_4_0" index="0" speed="13.90" length="14.40" shape="289.60,595.20 304.00,595.20"/>
        <lane id=":1_4_1" index="1" speed="13.90" length="14.40" shape="289.60,598.40 304.00,598.40"/>
    </edge>
    <edge id=":10_0" function="internal">
        <lane id=":10_0_0" index="0" speed="13.90" length="14.40" shape="445.20,304.00 445.20,289.60"/>
        <lane id=":10_0_1" index="1" speed="13.90" length="14.40" shape="448.40,304.00 448.40,289.60"/>
    </edge>
    <edge id=":10_2" function="internal">
        <lane id=":10_2_0" index="0" speed="13.90" length="9.03" shape="448.40,304.00 448.75,301.55 449.80,299.80 451.55,298.75 454.00,298.40"/>
    </edge>
    <edge id=":10_3" function="internal">
        <lane id=":10_3_0" index="0" speed="13.90" length="9.03" shape="439.60,295.20 442.05,294.85 443.80,293.80 444.85,292.05 445.20,289.60"/>
    </edge>
    <edge id=":10_4" function="internal">
        <lane id=":10_4_0" index="0" speed="13.90" length="14.40" shape="439.60,295.20 454.00,295.20"/>
        <lane id=":10_4_1" index="1" speed="13.90" length="14.40" shape="439.60,298.40 454.00,298.40"/>
    </edge>
    <edge id=":11_0" function="internal">
        <lane id=":11_0_0" index="0" speed="13.90" length="14.40" shape="595.20,304.00 595.20,289.60"/>
        <lane id=":11_0_1" index="1" speed="13.90" length="14.40" shape="598.40,304.00 598.40,289.60"/>
    </edge>
    <edge id=":11_2" function="internal">
        <lane id=":11_2_0" index="0" speed="13.90" length="9.03" shape="598.40,304.00 598.75,301.55 599.80,299.80 601.55,298.75 604.00,298.40"/>
    </edge>
    <edge id=":11_3" function="internal">
        <lane id=":11_3_0" index="0" speed="13.90" length="9.03" shape="589.60,295.20 592.05,294.85 593.80,293.80 594.85,292.05 595.20,289.60"/>
    </edge>
    <edge id=":11_4" function="internal">
        <lane id=":11_4_0" index="0" speed="13.90" length="14.40" shape="589.60,295.20 604.00,295.20"/>
        <lane id=":11_4_1" index="1" speed="13.90" length="14.40" shape="589.60,298.40 604.00,298.40"/>
    </edge>
    <edge id=":12_0" function="internal">
        <lane id=":12_0_0" index="0" speed="13.90" length="14.40" shape="145.20,154.00 145.20,139.60"/>
        <lane id=":12_0_1" index="1" speed="13.90" length="14.40" shape="148.40,154.00 148.40,139.60"/>
    </edge>
    <edge id=":12_2" function="internal">
        <lane id=":12_2_0" index="0" speed="13.90" length="9.03" shape="148.40,154.00 148.75,151.55 149.80,149.80 151.55,148.75 154.00,148.40"/>
    </edge>
    <edge id=":12_3" function="internal">
        <lane id=":12_3_0" index="0" speed="13.90" length="9.03" shape="139.60,145.20 142.05,144.85 143.80,143.80 144.85,142.05 145.20,139.60"/>
    </edge>
    <edge id=":12_4" function="internal">
        <lane id=":12_4_0" index="0" speed="13.90" length="14.40" shape="139.60,145.20 154.00,145.20"/>
        <lane id=":12_4_1" index="1" speed="13.90" length="14.40" shape="139.60,148.40 154.00,148.40"/>
    </edge>
    <edge id=":13_0" function="internal">
        <lane id=":13_0_0" index="0" speed="13.90" length="14.40" shape="295.20,154.00 295.20,139.60"/>
        <lane id=":13_0_1" index="1" speed="13.90" length="14.40" shape="298.40,154.00 298.40,139.60"/>
    </edge>
    <edge id=":13_2" function="internal">
        <lane id=":13_2_0" index="0" speed="13.90" length="9.03" shape="298.40,154.00 298.75,151.55 299.80,149.80 301.55,148.75 304.00,148.40"/>
    </edge>
    <edge id=":13_3" function="internal">
        <lane id=":13_3_0" index="0" speed="13.90" length="9.03" shape="289.60,145.20 292.05,144.85 293.80,143.80 294.85,142.05 295.20,139.60"/>
    </edge>
    <edge id=":13_4" function="internal">
        <lane id=":13_4_0" index="0" speed="13.90" length="14.40" shape="289.60,145.20 304.00,145.20"/>
        <lane id=":13_4_1" index="1" speed="13.90" length="14.40" shape="289.60,148.40 304.00,148.40"/>
    </edge>
    <edge id=":14_0" function="internal">
        <lane id=":14_0_0" index="0" speed="13.90" length="14.40" shape="445.20,154.00 445.20,139.60"/>
        <lane id=":14_0_1" index="1" speed="13.90" length="14.40" shape="448.40,154.00 448.40,139.60"/>
    </edge>
    <edge id=":14_2" function="internal">
        <lane id=":14_2_0" index="0" speed="13.90" length="9.03" shape="448.40,154.00 448.75,151.55 449.80,149.80 451.55,148.75 454.00,148.40"/>
    </edge>
    <edge id=":14_3" function="internal">
        <lane id=":14_3_0" index="0" speed="13.90" length="9.03" shape="439.60,145.20 442.05,144.85 443.80,143.80 444.85,142.05 445.20,139.60"/>
    </edge>
    <edge id=":14_4" function="internal">
        <lane id=":14_4_0" index="0" speed="13.90" length="14.40" shape="439.60,145.20 454.00,145.20"/>
        <lane id=":14_4_1" index="1" speed="13.90" length="14.40" shape="439.60,148.40 454.00,148.40"/>
    </edge>
    <edge id=":15_0" function="internal">
        <lane id=":15_0_0" index="0" speed="13.90" length="14.40" shape="595.20,154.00 595.20,139.60"/>
        <lane id=":15_0_1" index="1" speed="13.90" length="14.40" shape="598.40,154.00 598.40,139.60"/>
    </edge>
    <edge id=":15_2" function="internal">
        <lane id=":15_2_0" index="0" speed="13.90" length="9.03" shape="598.40,154.00 598.75,151.55 599.80,149.80 601.55,148.75 604.00,148.40"/>
    </edge>
    <edge id=":15_3" function="internal">
        <lane id=":15_3_0" index="0" speed="13.90" length="9.03" shape="589.60,145.20 592.05,144.85 593.80,143.80 594.85,142.05 595.20,139.60"/>
    </edge>
    <edge id=":15_4" function="internal">
        <lane id=":15_4_0" index="0" speed="13.90" length="14.40" shape="589.60,145.20 604.00,145.20"/>
        <lane id=":15_4_1" index="1" speed="13.90" length="14.40" shape="589.60,148.40 604.00,148.40"/>
    </edge>
    <edge id=":2_0" function="internal">
        <lane id=":2_0_0" index="0" speed="13.90" length="14.40" shape="445.20,604.00 445.20,589.60"/>
        <lane id=":2_0_1" index="1" speed="13.90" length="14.40" shape="448.40,604.00 448.40,589.60"/>
    </edge>
    <edge id=":2_2" function="internal">
        <lane id=":2_2_0" index="0" speed="13.90" length="9.03" shape="448.40,604.00 448.75,601.55 449.80,599.80 451.55,598.75 454.00,598.40"/>
    </edge>
    <edge id=":2_3" function="internal">
        <lane id=":2_3_0" index="0" speed="13.90" length="9.03" shape="439.60,595.20 442.05,594.85 443.80,593.80 444.85,592.05 445.20,589.60"/>
    </edge>
    <edge id=":2_4" function="internal">
        <lane id=":2_4_0" index="0" speed="13.90" length="14.40" shape="439.60,595.20 454.00,595.20"/>
        <lane id=":2_4_1" index="1" speed="13.90" length="14.40" shape="439.60,598.40 454.00,598.40"/>
    </edge>
    <edge id=":3_0" function="internal">
        <lane id=":3_0_0" index="0" speed="13.90" length="14.40" shape="595.20,604.00 595.20,589.60"/>
        <lane id=":3_0_1" index="1" speed="13.90" length="14.40" shape="598.40,604.00 598.40,589.60"/>
    </edge>
    <edge id=":3_2" function="internal">
        <lane id=":3_2_0" index="0" speed="13.90" length="9.03" shape="598.40,604.00 598.75,601.55 599.80,599.80 601.55,598.75 604.00,598.40"/>
    </edge>
    <edge id=":3_3" function="internal">
        <lane id=":3_3_0" index="0" speed="13.90" length="9.03" shape="589.60,595.20 592.05,594.85 593.80,593.80 594.85,592.05 595.20,589.60"/>
    </edge>
    <edge id=":3_4" function="internal">
        <lane id=":3_4_0" index="0" speed="13.90" length="14.40" shape="589.60,595.20 604.00,595.20"/>
        <lane id=":3_4_1" index="1" speed="13.90" length="14.40" shape="589.60,598.40 604.00,598.40"/>
    </edge>
    <edge id=":4_0" function="internal">
        <lane id=":4_0_0" index="0" speed="13.90" length="14.40" shape="145.20,454.00 145.20,439.60"/>
        <lane id=":4_0_1" index="1" speed="13.90" length="14.40" shape="148.40,454.00 148.40,439.60"/>
    </edge>
    <edge id=":4_2" function="internal">
        <lane id=":4_2_0" index="0" speed="13.90" length="9.03" shape="148.40,454.00 148.75,451.55 149.80,449.80 151.55,448.75 154.00,448.40"/>
    </edge>
    <edge id=":4_3" function="internal">
        <lane id=":4_3_0" index="0" speed="13.90" length="9.03" shape="139.60,445.20 142.05,444.85 143.80,443.80 144.85,442.05 145.20,439.60"/>
    </edge>
    <edge id=":4_4" function="internal">
        <lane id=":4_4_0" index="0" speed="13.90" length="14.40" shape="139.60,445.20 154.00,445.20"/>
        <lane id=":4_4_1" index="1" speed="13.90" length="14.40" shape="139.60,448.40 154.00,448.40"/>
    </edge>
    <edge id=":5_0" function="internal">
        <lane id=":5_0_0" index="0" speed="13.90" length="14.40" shape="295.20,454.00 295.20,439.60"/>
        <lane id=":5_0_1" index="1" speed="13.90" length="14.40" shape="298.40,454.00 298.40,439.60"/>
    </edge>
    <edge id=":5_2" function="internal">
        <lane id=":5_2_0" index="0" speed="13.90" length="9.03" shape="298.40,454.00 298.75,451.55 299.80,449.80 301.55,448.75 304.00,448.40"/>
    </edge>
    <edge id=":5_3" function="internal">
        <lane id=":5_3_0" index="0" speed="13.90" length="9.03" shape="289.60,445.20 292.05,444.85 293.80,443.80 294.85,442.05 295.20,439.60"/>
    </edge>
    <edge id=":5_4" function="internal">
        <lane id=":5_4_0" index="0" speed="13.90" length="14.40" shape="289.60,445.20 304.00,445.20"/>
        <lane id=":5_4_1" index="1" speed="13.90" length="14.40" shape="289.60,448.40 304.00,448.40"/>
    </edge>
    <edge id=":6_0" function="internal">
        <lane id=":6_0_0" index="0" speed="13.90" length="14.40" shape="445.20,454.00 445.20,439.60"/>
        <lane id=":6_0_1" index="1" speed="13.90" length="14.40" shape="448.40,454.00 448.40,439.60"/>
    </edge>
    <edge id=":6_2" function="internal">
        <lane id=":6_2_0" index="0" speed="13.90" length="9.03" shape="448.40,454.00 448.75,451.55 449.80,449.80 451.55,448.75 454.00,448.40"/>
    </edge>
    <edge id=":6_3" function="internal">
        <lane id=":6_3_0" index="0" speed="13.90" length="9.03" shape="439.60,445.20 442.05,444.85 443.80,443.80 444.85,442.05 445.20,439.60"/>
    </edge>
    <edge id=":6_4" function="internal">
        <lane id=":6_4_0" index="0" speed="13.90" length="14.40" shape="439.60,445.20 454.00,445.20"/>
        <lane id=":6_4_1" index="1" speed="13.90" length="14.40" shape="439.60,448.40 454.00,448.40"/>
    </edge>
    <edge id=":7_0" function="internal">
        <lane id=":7_0_0" index="0" speed="13.90" length="14.40" shape="595.20,454.00 595.20,439.60"/>
        <lane id=":7_0_1" index="1" speed="13.90" length="14.40" shape="598.40,454.00 598.40,439.60"/>
    </edge>
    <edge id=":7_2" function="internal">
        <lane id=":7_2_0" index="0" speed="13.90" length="9.03" shape="598.40,454.00 598.75,451.55 599.80,449.80 601.55,448.75 604.00,448.40"/>
    </edge>
    <edge id=":7_3" function="internal">
        <lane id=":7_3_0" index="0" speed="13.90" length="9.03" shape="589.60,445.20 592.05,444.85 593.80,443.80 594.85,442.05 595.20,439.60"/>
    </edge>
    <edge id=":7_4" function="internal">
        <lane id=":7_4_0" index="0" speed="13.90" length="14.40" shape="589.60,445.20 604.00,445.20"/>
        <lane id=":7_4_1" index="1" speed="13.90" length="14.40" shape="589.60,448.40 604.00,448.40"/>
    </edge>
    <edge id=":8_0" function="internal">
        <lane id=":8_0_0" index="0" speed="13.90" length="14.40" shape="145.20,304.00 145.20,289.60"/>
        <lane id=":8_0_1" index="1" speed="13.90" length="14.40" shape="148.40,304.00 148.40,289.60"/>
    </edge>
    <edge id=":8_2" function="internal">
        <lane id=":8_2_0" index="0" speed="13.90" length="9.03" shape="148.40,304.00 148.75,301.55 149.80,299.80 151.55,298.75 154.00,298.40"/>
    </edge>
    <edge id=":8_3" function="internal">
        <lane id=":8_3_0" index="0" speed="13.90" length="9.03" shape="139.60,295.20 142.05,294.85 143.80,293.80 144.85,292.05 145.20,289.60"/>
    </edge>
    <edge id=":8_4" function="internal">
        <lane id=":8_4_0" index="0" speed="13.90" length="14.40" shape="139.60,295.20 154.00,295.20"/>
        <lane id=":8_4_1" index="1" speed="13.90" length="14.40" shape="139.60,298.40 154.00,298.40"/>
    </edge>
    <edge id=":9_0" function="internal">
        <lane id=":9_0_0" index="0" speed="13.90" length="14.40" shape="295.20,304.00 295.20,289.60"/>
        <lane id=":9_0_1" index="1" speed="13.90" length="14.40" shape="298.40,304.00 298.40,289.60"/>
    </edge>
    <edge id=":9_2" function="internal">
        <lane id=":9_2_0" index="0" speed="13.90" length="9.03" shape="298.40,304.00 298.75,301.55 299.80,299.80 301.55,298.75 304.00,298.40"/>
    </edge>
    <edge id=":9_3" function="internal">
        <lane id=":9_3_0" index="0" speed="13.90" length="9.03" shape="289.60,295.20 292.05,294.85 293.80,293.80 294.85,292.05 295.20,289.60"/>
    </edge>
    <edge id=":9_4" function="internal">
        <lane id=":9_4_0" index="0" speed="13.90" length="14.40" shape="289.60,295.20 304.00,295.20"/>
        <lane id=":9_4_1" index="1" speed="13.90" length="14.40" shape="289.60,298.40 304.00,298.40"/>
    </edge>

    <edge id="0to1" from="0" to="1" priority="-1">
        <lane id="0to1_0" index="0" speed="13.90" length="135.60" shape="154.00,595.20 289.60,595.20"/>
        <lane id="0to1_1" index="1" speed="13.90" length="135.60" shape="154.00,598.40 289.60,598.40"/>
    </edge>
    <edge id="0to4" from="0" to="4" priority="-1">
        <lane id="0to4_0" index="0" speed="13.90" length="135.60" shape="145.20,589.60 145.20,454.00"/>
        <lane id="0to4_1" index="1" speed="13.90" length="135.60" shape="148.40,589.60 148.40,454.00"/>
    </edge>
    <edge id="10to11" from="10" to="11" priority="-1">
        <lane id="10to11_0" index="0" speed="13.90" length="135.60" shape="454.00,295.20 589.60,295.20"/>
        <lane id="10to11_1" index="1" speed="13.90" length="135.60" shape="454.00,298.40 589.60,298.40"/>
    </edge>
    <edge id="10to14" from="10" to="14" priority="-1">
        <lane id="10to14_0" index="0" speed="13.90" length="135.60" shape="445.20,289.60 445.20,154.00"/>
        <lane id="10to14_1" index="1" speed="13.90" length="135.60" shape="448.40,289.60 448.40,154.00"/>
    </edge>
    <edge id="11to15" from="11" to="15" priority="-1">
        <lane id="11to15_0" index="0" speed="13.90" length="135.60" shape="595.20,289.60 595.20,154.00"/>
        <lane id="11to15_1" index="1" speed="13.90" length="135.60" shape="598.40,289.60 598.40,154.00"/>
    </edge>
    <edge id="11to30" from="11" to="30" priority="-1">
        <lane id="11to30_0" index="0" speed="13.90" length="146.00" shape="604.00,295.20 750.00,295.20"/>
        <lane id="11to30_1" index="1" speed="13.90" length="146.00" shape="604.00,298.40 750.00,298.40"/>
    </edge>
    <edge id="12to13" from="12" to="13" priority="-1">
        <lane id="12to13_0" index="0" speed="13.90" length="135.60" shape="154.00,145.20 289.60,145.20"/>
        <lane id="12to13_1" index="1" speed="13.90" length="135.60" shape="154.00,148.40 289.60,148.40"/>
    </edge>
    <edge id="12to24" from="12" to="24" priority="-1">
        <lane id="12to24_0" index="0" speed="13.90" length="139.60" shape="145.20,139.60 145.20,0.00"/>
        <lane id="12to24_1" index="1" speed="13.90" length="139.60" shape="148.40,139.60 148.40,0.00"/>
    </edge>
    <edge id="13to14" from="13" to="14" priority="-1">
        <lane id="13to14_0" index="0" speed="13.90" length="135.60" shape="304.00,145.20 439.60,145.20"/>
        <lane id="13to14_1" index="1" speed="13.90" length="135.60" shape="304.00,148.40 439.60,148.40"/>
    </edge>
    <edge id="13to25" from="13" to="25" priority="-1">
        <lane id="13to25_0" index="0" speed="13.90" length="139.60" shape="295.20,139.60 295.20,0.00"/>
        <lane id="13to25_1" index="1" speed="13.90" length="139.60" shape="298.40,139.60 298.40,0.00"/>
    </edge>
    <edge id="14to15" from="14" to="15" priority="-1">
        <lane id="14to15_0" index="0" speed="13.90" length="135.60" shape="454.00,145.20 589.60,145.20"/>
        <lane id="14to15_1" index="1" speed="13.90" length="135.60" shape="454.00,148.40 589.60,148.40"/>
    </edge>
    <edge id="14to26" from="14" to="26" priority="-1">
        <lane id="14to26_0" index="0" speed="13.90" length="139.60" shape="445.20,139.60 445.20,0.00"/>
        <lane id="14to26_1" index="1" speed="13.90" length="139.60" shape="448.40,139.60 448.40,0.00"/>
    </edge>
    <edge id="15to27" from="15" to="27" priority="-1">
        <lane id="15to27_0" index="0" speed="13.90" length="139.60" shape="595.20,139.60 595.20,0.00"/>
        <lane id="15to27_1" index="1" speed="13.90" length="139.60" shape="598.40,139.60 598.40,0.00"/>
    </edge>
    <edge id="15to31" from="15" to="31" priority="-1">
        <lane id="15to31_0" index="0" speed="13.90" length="146.00" shape="604.00,145.20 750.00,145.20"/>
        <lane id="15to31_1" index="1" speed="13.90" length="146.00" shape="604.00,148.40 750.00,148.40"/>
    </edge>
    <edge id="16to0" from="16" to="0" priority="-1">
        <lane id="16to0_0" index="0" speed="13.90" length="146.00" shape="145.20,750.00 145.20,604.00"/>
        <lane id="16to0_1" index="1" speed="13.90" length="146.00" shape="148.40,750.00 148.40,604.00"/>
    </edge>
    <edge id="17to1" from="17" to="1" priority="-1">
        <lane id="17to1_0" index="0" speed="13.90" length="146.00" shape="295.20,750.00 295.20,604.00"/>
        <lane id="17to1_1" index="1" speed="13.90" length="146.00" shape="298.40,750.00 298.40,604.00"/>
    </edge>
    <edge id="18to2" from="18" to="2" priority="-1">
        <lane id="18to2_0" index="0" speed="13.90" length="146.00" shape="445.20,750.00 445.20,604.00"/>
        <lane id="18to2_1" index="1" speed="13.90" length="146.00" shape="448.40,750.00 448.40,604.00"/>
    </edge>
    <edge id="19to3" from="19" to="3" priority="-1">
        <lane id="19to3_0" index="0" speed="13.90" length="146.00" shape="595.20,750.00 595.20,604.00"/>
        <lane id="19to3_1" index="1" speed="13.90" length="146.00" shape="598.40,750.00 598.40,604.00"/>
    </edge>
    <edge id="1to2" from="1" to="2" priority="-1">
        <lane id="1to2_0" index="0" speed="13.90" length="135.60" shape="304.00,595.20 439.60,595.20"/>
        <lane id="1to2_1" index="1" speed="13.90" length="135.60" shape="304.00,598.40 439.60,598.40"/>
    </edge>
    <edge id="1to5" from="1" to="5" priority="-1">
        <lane id="1to5_0" index="0" speed="13.90" length="135.60" shape="295.20,589.60 295.20,454.00"/>
        <lane id="1to5_1" index="1" speed="13.90" length="135.60" shape="298.40,589.60 298.40,454.00"/>
    </edge>
    <edge id="20to0" from="20" to="0" priority="-1">
        <lane id="20to0_0" index="0" speed="13.90" length="139.60" shape="0.00,595.20 139.60,595.20"/>
        <lane id="20to0_1" index="1" speed="13.90" length="139.60" shape="0.00,598.40 139.60,598.40"/>
    </edge>
    <edge id="21to4" from="21" to="4" priority="-1">
        <lane id="21to4_0" index="0" speed="13.90" length="139.60" shape="0.00,445.20 139.60,445.20"/>
        <lane id="21to4_1" index="1" speed="13.90" length="139.60" shape="0.00,448.40 139.60,448.40"/>
    </edge>
    <edge id="22to8" from="22" to="8" priority="-1">
        <lane id="22to8_0" index="0" speed="13.90" length="139.60" shape="0.00,295.20 139.60,295.20"/>
        <lane id="22to8_1" index="1" speed="13.90" length="139.60" shape="0.00,298.40 139.60,298.40"/>
    </edge>
    <edge id="23to12" from="23" to="12" priority="-1">
        <lane id="23to12_0" index="0" speed="13.90" length="139.60" shape="0.00,145.20 139.60,145.20"/>
        <lane id="23to12_1" index="1" speed="13.90" length="139.60" shape="0.00,148.40 139.60,148.40"/>
    </edge>
    <edge id="2to3" from="2" to="3" priority="-1">
        <lane id="2to3_0" index="0" speed="13.90" length="135.60" shape="454.00,595.20 589.60,595.20"/>
        <lane id="2to3_1" index="1" speed="13.90" length="135.60" shape="454.00,598.40 589.60,598.40"/>
    </edge>
    <edge id="2to6" from="2" to="6" priority="-1">
        <lane id="2to6_0" index="0" speed="13.90" length="135.60" shape="445.20,589.60 445.20,454.00"/>
        <lane id="2to6_1" index="1" speed="13.90" length="135.60" shape="448.40,589.60 448.40,454.00"/>
    </edge>
    <edge id="3to28" from="3" to="28" priority="-1">
        <lane id="3to28_0" index="0" speed="13.90" length="146.00" shape="604.00,595.20 750.00,595.20"/>
        <lane id="3to28_1" index="1" speed="13.90" length="146.00" shape="604.00,598.40 750.00,598.40"/>
    </edge>
    <edge id="3to7" from="3" to="7" priority="-1">
        <lane id="3to7_0" index="0" speed="13.90" length="135.60" shape="595.20,589.60 595.20,454.00"/>
        <lane id="3to7_1" index="1" speed="13.90" length="135.60" shape="598.40,589.60 598.40,454.00"/>
    </edge>
    <edge id="4to5" from="4" to="5" priority="-1">
        <lane id="4to5_0" index="0" speed="13.90" length="135.60" shape="154.00,445.20 289.60,445.20"/>
        <lane id="4to5_1" index="1" speed="13.90" length="135.60" shape="154.00,448.40 289.60,448.40"/>
    </edge>
    <edge id="4to8" from="4" to="8" priority="-1">
        <lane id="4to8_0" index="0" speed="13.90" length="135.60" shape="145.20,439.60 145.20,304.00"/>
        <lane id="4to8_1" index="1" speed="13.90" length="135.60" shape="148.40,439.60 148.40,304.00"/>
    </edge>
    <edge id="5to6" from="5" to="6" priority="-1">
        <lane id="5to6_0" index="0" speed="13.90" length="135.60" shape="304.00,445.20 439.60,445.20"/>
        <lane id="5to6_1" index="1" speed="13.90" length="135.60" shape="304.00,448.40 439.60,448.40"/>
    </edge>
    <edge id="5to9" from="5" to="9" priority="-1">
        <lane id="5to9_0" index="0" speed="13.90" length="135.60" shape="295.20,439.60 295.20,304.00"/>
        <lane id="5to9_1" index="1" speed="13.90" length="135.60" shape="298.40,439.60 298.40,304.00"/>
    </edge>
    <edge id="6to10" from="6" to="10" priority="-1">
        <lane id="6to10_0" index="0" speed="13.90" length="135.60" shape="445.20,439.60 445.20,304.00"/>
        <lane id="6to10_1" index="1" speed="13.90" length="135.60" shape="448.40,439.60 448.40,304.00"/>
    </edge>
    <edge id="6to7" from="6" to="7" priority="-1">
        <lane id="6to7_0" index="0" speed="13.90" length="135.60" shape="454.00,445.20 589.60,445.20"/>
        <lane id="6to7_1" index="1" speed="13.90" length="135.60" shape="454.00,448.40 589.60,448.40"/>
    </edge>
    <edge id="7to11" from="7" to="11" priority="-1">
        <lane id="7to11_0" index="0" speed="13.90" length="135.60" shape="595.20,439.60 595.20,304.00"/>
        <lane id="7to11_1" index="1" speed="13.90" length="135.60" shape="598.40,439.60 598.40,304.00"/>
    </edge>
    <edge id="7to29" from="7" to="29" priority="-1">
        <lane id="7to29_0" index="0" speed="13.90" length="146.00" shape="604.00,445.20 750.00,445.20"/>
        <lane id="7to29_1" index="1" speed="13.90" length="146.00" shape="604.00,448.40 750.00,448.40"/>
    </edge>
    <edge id="8to12" from="8" to="12" priority="-1">
        <lane id="8to12_0" index="0" speed="13.90" length="135.60" shape="145.20,289.60 145.20,154.00"/>
        <lane id="8to12_1" index="1" speed="13.90" length="135.60" shape="148.40,289.60 148.40,154.00"/>
    </edge>
    <edge id="8to9" from="8" to="9" priority="-1">
        <lane id="8to9_0" index="0" speed="13.90" length="135.60" shape="154.00,295.20 289.60,295.20"/>
        <lane id="8to9_1" index="1" speed="13.90" length="135.60" shape="154.00,298.40 289.60,298.40"/>
    </edge>
    <edge id="9to10" from="9" to="10" priority="-1">
        <lane id="9to10_0" index="0" speed="13.90" length="135.60" shape="304.00,295.20 439.60,295.20"/>
        <lane id="9to10_1" index="1" speed="13.90" length="135.60" shape="304.00,298.40 439.60,298.40"/>
    </edge>
    <edge id="9to13" from="9" to="13" priority="-1">
        <lane id="9to13_0" index="0" speed="13.90" length="135.60" shape="295.20,289.60 295.20,154.00"/>
        <lane id="9to13_1" index="1" speed="13.90" length="135.60" shape="298.40,289.60 298.40,154.00"/>
    </edge>

    <tlLogic id="0" type="static" programID="0" offset="0">
        <phase duration="42" state="GGGrrr"/>
        <phase duration="2"  state="yyyrrr"/>
        <phase duration="42" state="rrrGGG"/>
        <phase duration="2"  state="rrryyy"/>
    </tlLogic>
    <tlLogic id="1" type="static" programID="0" offset="0">
        <phase duration="42" state="GGGrrr"/>
        <phase duration="2"  state="yyyrrr"/>
        <phase duration="42" state="rrrGGG"/>
        <phase duration="2"  state="rrryyy"/>
    </tlLogic>
    <tlLogic id="10" type="static" programID="0" offset="0">
        <phase duration="42" state="GGGrrr"/>
        <phase duration="2"  state="yyyrrr"/>
        <phase duration="42" state="rrrGGG"/>
        <phase duration="2"  state="rrryyy"/>
    </tlLogic>
    <tlLogic id="10" type="static" programID="1" offset="0">
        <phase duration="42" state="GGGrrr"/>
        <phase duration="3"  state="yyyrrr"/>
        <phase duration="42" state="rrrGGG"/>
        <phase duration="3"  state="rrryyy"/>
    </tlLogic>
    <tlLogic id="11" type="static" programID="0" offset="0">
        <phase duration="42" state="GGGrrr"/>
        <phase duration="2"  state="yyyrrr"/>
        <phase duration="42" state="rrrGGG"/>
        <phase duration="2"  state="rrryyy"/>
    </tlLogic>
    <tlLogic id="12" type="static" programID="0" offset="0">
        <phase duration="42" state="GGGrrr"/>
        <phase duration="2"  state="yyyrrr"/>
        <phase duration="42" state="rrrGGG"/>
        <phase duration="2"  state="rrryyy"/>
    </tlLogic>
    <tlLogic id="13" type="static" programID="0" offset="0">
        <phase duration="42" state="GGGrrr"/>
        <phase duration="2"  state="yyyrrr"/>
        <phase duration="42" state="rrrGGG"/>
        <phase duration="2"  state="rrryyy"/>
    </tlLogic>
    <tlLogic id="14" type="static" programID="0" offset="0">
        <phase duration="42" state="GGGrrr"/>
        <phase duration="2"  state="yyyrrr"/>
        <phase duration="42" state="rrrGGG"/>
        <phase duration="2"  state="rrryyy"/>
    </tlLogic>
    <tlLogic id="15" type="static" programID="0" offset="0">
        <phase duration="42" state="GGGrrr"/>
        <phase duration="2"  state="yyyrrr"/>
        <phase duration="42" state="rrrGGG"/>
        <phase duration="2"  state="rrryyy"/>
    </tlLogic>
    <tlLogic id="2" type="static" programID="0" offset="0">
        <phase duration="42" state="GGGrrr"/>