<routes>
            <vType accel="1.0" decel="4.5" id="standard_car" length="5.0" minGap="2.5" maxSpeed="25" sigma="0.5" />
            
            <route id="route_1" edges="919294104#4 919294104#5 "/>
            <route id="route_2" edges="919294104#4 -430137480#11 -430137480#10 -430137480#9 -430137480#8 -430137480#7"/>
            <route id="route_3" edges="430137496#0 430137496#1"/>
            <route id="route_4" edges="-430137496#1 -430137496#0"/>
            <route id="route_5" edges="-gneE4 430137476#2"/>
            <route id="route_6" edges="-430137476#2 gneE4"/>
            <route id="route_7" edges="430137480#7 430137480#8 430137480#9 430137480#10 430137480#11 919294104#5"/>
            <route id="route_8" edges="919294104#4 -430137480#11 -430137480#10 -430137480#9 -430137480#8 -gneE14"/>
            <route id="route_9" edges="919294104#4 -430137480#11 430137496#1 "/>
            <route id="route_10" edges="919294104#4 -430137480#11 -430137480#10 gneE5"/>
            <route id="route_11" edges="919294104#4 -430137480#11 -430137480#10 -430137480#9 430137476#2"/>

            
            
    <vehicle id="route_H100" type="standard_car" route="route_10" depart="94.0" departLane="random" departSpeed="10" />
    <vehicle id="route_G71" type="standard_car" route="route_7" depart="123.0" departLane="random" departSpeed="10" />
    <vehicle id="route_C32" type="standard_car" route="route_3" depart="160.0" departLane="random" departSpeed="10" />
    <vehicle id="route_H103" type="standard_car" route="route_10" depart="193.0" departLane="random" departSpeed="10" />
    <vehicle id="route_D44" type="standard_car" route="route_4" depart="195.0" departLane="random" departSpeed="10" />
    <vehicle id="route_F65" type="standard_car" route="route_6" depart="198.0" departLane="random" departSpeed="10" />
    <vehicle id="route_H86" type="standard_car" route="route_8" depart="208.0" departLane="random" departSpeed="10" />
    <vehicle id="route_H107" type="standard_car" route="route_10" depart="226.0" departLane="random" departSpeed="10" />
    <vehicle id="route_A18" type="standard_car" route="route_1" depart="231.0" departLane="random" departSpeed="10" />
    <vehicle id="route_H89" type="standard_car" route="route_8" depart="232.0" departLane="random" departSpeed="10" />
    <vehicle id="route_B210" type="standard_car" route="route_2" depart="235.0" departLane="random" departSpeed="10" />
    <vehicle id="route_C311" type="standard_car" route="route_3" depart="246.0" departLane="random" departSpeed="10" />
    <vehicle id="route_F612" type="standard_car" route="route_6" depart="248.0" departLane="random" departSpeed="10" />
    <vehicle id="route_A113" type="standard_car" route="route_1" depart="250.0" departLane="random" departSpeed="10" />
    <vehicle id="route_F614" type="standard_car" route="route_6" depart="251.0" departLane="random" departSpeed="10" />
    <vehicle id="route_H915" type="standard_car" route="route_9" depart="257.0" departLane="random" departSpeed="10" />
    <vehicle id="route_H1016" type="standard_car" route="route_10" depart="257.0" departLane="random" departSpeed="10" />
    <vehicle id="route_H917" type="standard_car" route="route_9" depart="260.0" departLane="random" departSpeed="10" />
    <vehicle id="route_C318" type="standard_car" route="route_3" depart="282.0" departLane="random" departSpeed="10" />
    <vehicle id="route_F619" type="standard_car" route="route_6" depart="285.0" departLane="random" departSpeed="10" />
    <vehicle id="route_D420" type="standard_car" route="route_4" depart="290.0" departLane="random" departSpeed="10" />
    <vehicle id="route_B221" type="standard_car" route="route_2" depart="310.0" departLane="random" departSpeed="10" />
    <vehicle id="route_H822" type="standard_car" route="route_8" depart="314.0" departLane="random" departSpeed="10" />
    <vehicle id="route_D423" type="standard_car" route="route_4" depart="315.0" departLane="random" departSpeed="10" />
    <vehicle id="route_H1124" type="standard_car" route="route_11" depart="324.0" departLane="random" departSpeed="10" />
    <vehicle id="route_H925" type="standard_car" route="route_9" depart="330.0" departLane="random" departSpeed="10" />
    <vehicle id="route_F626" type="standard_car" route="route_6" depart="331.0" departLane="random" departSpeed="10" />
    <vehicle id="route_H1127" type="standard_car" route="route_11" depart="342.0" departLane="random" departSpeed="10" />
    <vehicle id="route_F628" type="standard_car" route="route_6" depart="345.0" departLane="random" departSpeed="10" />
    <vehicle id="route_B229" type="standard_car" route="route_2" depart="360.0" departLane="random" departSpeed="10" />
    <vehicle id="route_H1030" type="standard_car" route="route_10" depart="362.0" departLane="random" departSpeed="10" />
    <vehicle id="route_H831" type="standard_car" route="route_8" depart="385.0" departLane="random" departSpeed="10" />
    <vehicle id="route_H1132" type="standard_car" route="route_11" depart="391.0" departLane="random" departSpeed="10" />
    <vehicle id="route_C333" type="standard_car" route="route_3" depart="402.0" departLane="random" departSpeed="10" />
    <vehicle id="route_B234" type="standard_car" route="route_2" depart="422.0" departLane="random" departSpeed="10" />
    <vehicle id="route_A135" type="standard_car" route="route_1" depart="425.0" departLane="random" departSpeed="10" />
    <vehicle id="route_B236" type="standard_car" route="route_2" depart="430.0" departLane="random" departSpeed="10" />
    <vehicle id="route_A137" type="standard_car" route="route_1" depart="435.0" departLane="random" departSpeed="10" />
    <vehicle id="route_B238" type="standard_car" route="route_2" depart="440.0" departLane="random" departSpeed="10" />
    <vehicle id="route_B239" type="standard_car" route="route_2" depart="441.0" departLane="random" departSpeed="10" />
    <vehicle id="route_G740" type="standard_car" route="route_7" depart="442.0" departLane="random" departSpeed="10" />
    <vehicle id="route_H941" type="standard_car" route="route_9" depart="448.0" departLane="random" departSpeed="10" />
    <vehicle id="route_H942" type="standard_car" route="route_9" depart="449.0" departLane="random" departSpeed="10" />
    <vehicle id="route_H1143" type="standard_car" route="route_11" depart="452.0" departLane="random" departSpeed="10" />
    <vehicle id="route_D444" type="standard_car" route="route_4" depart="458.0" departLane="random" departSpeed="10" />
    <vehicle id="route_C345" type="standard_car" route="route_3" depart="458.0" departLane="random" departSpeed="10" />
    <vehicle id="route_A146" type="standard_car" route="route_1" depart="460.0" departLane="random" departSpeed="10" />
    <vehicle id="route_H847" type="standard_car" route="route_8" depart="463.0" departLane="random" departSpeed="10" />
    <vehicle id="route_E548" type="standard_car" route="route_5" depart="463.0" departLane="random" departSpeed="10" />
    <vehicle id="route_G749" type="standard_car" route="route_7" depart="468.0" departLane="random" departSpeed="10" />
    <vehicle id="route_A150" type="standard_car" route="route_1" depart="475.0" departLane="random" departSpeed="10" />
    <vehicle id="route_F651" type="standard_car" route="route_6" depart="478.0" departLane="random" departSpeed="10" />
    <vehicle id="route_D452" type="standard_car" route="route_4" depart="482.0" departLane="random" departSpeed="10" />
    <vehicle id="route_D453" type="standard_car" route="route_4" depart="485.0" departLane="random" departSpeed="10" />
    <vehicle id="route_H1054" type="standard_car" route="route_10" depart="488.0" departLane="random" departSpeed="10" />
    <vehicle id="route_H1155" type="standard_car" route="route_11" depart="489.0" departLane="random" departSpeed="10" />
    <vehicle id="route_E556" type="standard_car" route="route_5" depart="508.0" departLane="random" departSpeed="10" />
    <vehicle id="route_H1057" type="standard_car" route="route_10" depart="509.0" departLane="random" departSpeed="10" />
    <vehicle id="route_A158" type="standard_car" route="route_1" depart="518.0" departLane="random" departSpeed="10" />
    <vehicle id="route_G759" type="standard_car" route="route_7" depart="523.0" departLane="random" departSpeed="10" />
    <vehicle id="route_F660" type="standard_car" route="route_6" depart="531.0" departLane="random" departSpeed="10" />
    <vehicle id="route_D461" type="standard_car" route="route_4" depart="543.0" departLane="random" departSpeed="10" />
    <vehicle id="route_A162" type="standard_car" route="route_1" depart="551.0" departLane="random" departSpeed="10" />
    <vehicle id="route_A163" type="standard_car" route="route_1" depart="552.0" departLane="random" departSpeed="10" />
    <vehicle id="route_B264" type="standard_car" route="route_2" depart="556.0" departLane="random" departSpeed="10" />
    <vehicle id="route_C365" type="standard_car" route="route_3" depart="565.0" departLane="random" departSpeed="10" />
    <vehicle id="route_A166" type="standard_car" route="route_1" depart="572.0" departLane="random" departSpeed="10" />
    <vehicle id="route_C367" type="standard_car" route="route_3" depart="574.0" departLane="random" departSpeed="10" />
    <vehicle id="route_C368" type="standard_car" route="route_3" depart="575.0" departLane="random" departSpeed="10" />
    <vehicle id="route_H1069" type="standard_car" route="route_10" depart="576.0" departLane="random" departSpeed="10" />
    <vehicle id="route_G770" type="standard_car" route="route_7" depart="576.0" departLane="random" departSpeed="10" />
    <vehicle id="route_H871" type="standard_car" route="route_8" depart="578.0" departLane="random" departSpeed="10" />
    <vehicle id="route_H972" type="standard_car" route="route_9" depart="583.0" departLane="random" departSpeed="10" />
    <vehicle id="route_H1073" type="standard_car" route="route_10" depart="585.0" departLane="random" departSpeed="10" />
    <vehicle id="route_H1174" type="standard_car" route="route_11" depart="585.0" departLane="random" departSpeed="10" />
    <vehicle id="route_H975" type="standard_car" route="route_9" depart="591.0" departLane="random" departSpeed="10" />
    <vehicle id="route_C376" type="standard_car" route="route_3" depart="594.0" departLane="random" departSpeed="10" />
    <vehicle id="route_E577" type="standard_car" route="route_5" depart="598.0" departLane="random" departSpeed="10" />
    <vehicle id="route_H878" type="standard_car" route="route_8" depart="602.0" departLane="random" departSpeed="10" />
    <vehicle id="route_H879" type="standard_car" route="route_8" depart="606.0" departLane="random" departSpeed="10" />
    <vehicle id="route_F680" type="standard_car" route="route_6" depart="614.0" departLane="random" departSpeed="10" />
    <vehicle id="route_H881" type="standard_car" route="route_8" depart="616.0" departLane="random" departSpeed="10" />
    <vehicle id="route_C382" type="standard_car" route="route_3" depart="616.0" departLane="random" departSpeed="10" />
    <vehicle id="route_E583" type="standard_car" route="route_5" depart="631.0" departLane="random" departSpeed="10" />
    <vehicle id="route_B284" type="standard_car" route="route_2" depart="631.0" departLane="random" departSpeed="10" />
    <vehicle id="route_B285" type="standard_car" route="route_2" depart="632.0" departLane="random" departSpeed="10" />
    <vehicle id="route_B286" type="standard_car" route="route_2" depart="636.0" departLane="random" departSpeed="10" />
    <vehicle id="route_H887" type="standard_car" route="route_8" depart="636.0" departLane="random" departSpeed="10" />
    <vehicle id="route_H1088" type="standard_car" route="route_10" depart="636.0" departLane="random" departSpeed="10" />
    <vehicle id="route_A189" type="standard_car" route="route_1" depart="639.0" departLane="random" departSpeed="10" />
    <vehicle id="route_H1090" type="standard_car" route="route_10" depart="640.0" departLane="random" departSpeed="10" />
    <vehicle id="route_H1191" type="standard_car" route="route_11" depart="644.0" departLane="random" departSpeed="10" />
    <vehicle id="route_A192" type="standard_car" route="route_1" depart="654.0" departLane="random" departSpeed="10" />
    <vehicle id="route_C393" type="standard_car" route="route_3" depart="669.0" departLane="random" departSpeed="10" />
    <vehicle id="route_B294" type="standard_car" route="route_2" depart="669.0" departLane="random" departSpeed="10" />
    <vehicle id="route_E595" type="standard_car" route="route_5" depart="675.0" departLane="random" departSpeed="10" />
    <vehicle id="route_G796" type="standard_car" route="route_7" depart="675.0" departLane="random" departSpeed="10" />
    <vehicle id="route_A197" type="standard_car" route="route_1" depart="676.0" departLane="random" departSpeed="10" />
    <vehicle id="route_G798" type="standard_car" route="route_7" depart="677.0" departLane="random" departSpeed="10" />
    <vehicle id="route_G799" type="standard_car" route="route_7" depart="677.0" departLane="random" departSpeed="10" />
    <vehicle id="route_H11100" type="standard_car" route="route_11" depart="679.0" departLane="random" departSpeed="10" />
    <vehicle id="route_C3101" type="standard_car" route="route_3" depart="681.0" departLane="random" departSpeed="10" />
    <vehicle id="route_H9102" type="standard_car" route="route_9" depart="681.0" departLane="random" departSpeed="10" />
    <vehicle id="route_G7103" type="standard_car" route="route_7" depart="687.0" departLane="random" departSpeed="10" />
    <vehicle id="route_G7104" type="standard_car" route="route_7" depart="691.0" departLane="random" departSpeed="10" />
    <vehicle id="route_F6105" type="standard_car" route="route_6" depart="694.0" departLane="random" departSpeed="10" />
    <vehicle id="route_C3106" type="standard_car" route="route_3" depart="708.0" departLane="random" departSpeed="10" />
    <vehicle id="route_F6107" type="standard_car" route="route_6" depart="712.0" departLane="random" departSpeed="10" />
    <vehicle id="route_A1108" type="standard_car" route="route_1" depart="718.0" departLane="random" departSpeed="10" />
    <vehicle id="route_H11109" type="standard_car" route="route_11" depart="720.0" departLane="random" departSpeed="10" />
    <vehicle id="route_D4110" type="standard_car" route="route_4" depart="720.0" departLane="random" departSpeed="10" />
    <vehicle id="route_H10111" type="standard_car" route="route_10" depart="721.0" departLane="random" departSpeed="10" />
    <vehicle id="route_H10112" type="standard_car" route="route_10" depart="724.0" departLane="random" departSpeed="10" />
    <vehicle id="route_H8113" type="standard_car" route="route_8" depart="732.0" departLane="random" departSpeed="10" />
    <vehicle id="route_A1114" type="standard_car" route="route_1" depart="749.0" departLane="random" departSpeed="10" />
    <vehicle id="route_H11115" type="standard_car" route="route_11" depart="750.0" departLane="random" departSpeed="10" />
    <vehicle id="route_E5116" type="standard_car" route="route_5" depart="752.0" departLane="random" departSpeed="10" />
    <vehicle id="route_B2117" type="standard_car" route="route_2" depart="753.0" departLane="random" departSpeed="10" />
    <vehicle id="route_D4118" type="standard_car" route="route_4" depart="753.0" departLane="random" departSpeed="10" />
    <vehicle id="route_F6119" type="standard_car" route="route_6" depart="755.0" departLane="random" departSpeed="10" />
    <vehicle id="route_H8120" type="standard_car" route="route_8" depart="758.0" departLane="random" departSpeed="10" />
    <vehicle id="route_G7121" type="standard_car" route="route_7" depart="759.0" departLane="random" departSpeed="10" />
    <vehicle id="route_C3122" type="standard_car" route="route_3" depart="764.0" departLane="random" departSpeed="10" />
    <vehicle id="route_H8123" type="standard_car" route="route_8" depart="775.0" departLane="random" departSpeed="10" />
    <vehicle id="route_D4124" type="standard_car" route="route_4" depart="781.0" departLane="random" departSpeed="10" />
    <vehicle id="route_E5125" type="standard_car" route="route_5" depart="782.0" departLane="random" departSpeed="10" />
    <vehicle id="route_H10126" type="standard_car" route="route_10" depart="789.0" departLane="random" departSpeed="10" />
    <vehicle id="route_H8127" type="standard_car" route="route_8" depart="789.0" departLane="random" departSpeed="10" />
    <vehicle id="route_A1128" type="standard_car" route="route_1" depart="801.0" departLane="random" departSpeed="10" />
    <vehicle id="route_A1129" type="standard_car" route="route_1" depart="805.0" departLane="random" departSpeed="10" />
    <vehicle id="route_B2130" type="standard_car" route="route_2" depart="810.0" departLane="random" departSpeed="10" />
    <vehicle id="route_H9131" type="standard_car" route="route_9" depart="810.0" departLane="random" departSpeed="10" />
    <vehicle id="route_D4132" type="standard_car" route="route_4" depart="815.0" departLane="random" departSpeed="10" />
    <vehicle id="route_F6133" type="standard_car" route="route_6" depart="816.0" departLane="random" departSpeed="10" />
    <vehicle id="route_H11134" type="standard_car" route="route_11" depart="817.0" departLane="random" departSpeed="10" />
    <vehicle id="route_A1135" type="standard_car" route="route_1" depart="819.0" departLane="random" departSpeed="10" />
    <vehicle id="route_B2136" type="standard_car" route="route_2" depart="826.0" departLane="random" departSpeed="10" />
    <vehicle id="route_H11137" type="standard_car" route="route_11" depart="828.0" departLane="random" departSpeed="10" />
    <vehicle id="route_B2138" type="standard_car" route="route_2" depart="842.0" departLane="random" departSpeed="10" />
    <vehicle id="route_D4139" type="standard_car" route="route_4" depart="843.0" departLane="random" departSpeed="10" />
    <vehicle id="route_H8140" type="standard_car" route="route_8" depart="850.0" departLane="random" departSpeed="10" />
    <vehicle id="route_H10141" type="standard_car" route="route_10" depart="862.0" departLane="random" departSpeed="10" />
    <vehicle id="route_D4142" type="standard_car" route="route_4" depart="868.0" departLane="random" departSpeed="10" />
    <vehicle id="route_H8143" type="standard_car" route="route_8" depart="871.0" departLane="random" departSpeed="10" />
    <vehicle id="route_A1144" type="standard_car" route="route_1" depart="873.0" departLane="random" departSpeed="10" />
    <vehicle id="route_C3145" type="standard_car" route="route_3" depart="874.0" departLane="random" departSpeed="10" />
    <vehicle id="route_E5146" type="standard_car" route="route_5" depart="875.0" departLane="random" departSpeed="10" />
    <vehicle id="route_H11147" type="standard_car" route="route_11" depart="882.0" departLane="random" departSpeed="10" />
    <vehicle id="route_E5148" type="standard_car" route="route_5" depart="887.0" departLane="random" departSpeed="10" />
    <vehicle id="route_G7149" type="standard_car" route="route_7" depart="890.0" departLane="random" departSpeed="10" />
    <vehicle id="route_A1150" type="standard_car" route="route_1" depart="900.0" departLane="random" departSpeed="10" />
    <vehicle id="route_B2151" type="standard_car" route="route_2" depart="904.0" departLane="random" departSpeed="10" />
    <vehicle id="route_H8152" type="standard_car" route="route_8" depart="906.0" departLane="random" departSpeed="10" />
    <vehicle id="route_G7153" type="standard_car" route="route_7" depart="907.0" departLane="random" departSpeed="10" />
    <vehicle id="route_F6154" type="standard_car" route="route_6" depart="914.0" departLane="random" departSpeed="10" />
    <vehicle id="route_F6155" type="standard_car" route="route_6" depart="915.0" departLane="random" departSpeed="10" />
    <vehicle id="route_H8156" type="standard_car" route="route_8" depart="924.0" departLane="random" departSpeed="10" />
    <vehicle id="route_D4157" type="standard_car" route="route_4" depart="925.0" departLane="random" departSpeed="10" />
    <vehicle id="route_G7158" type="standard_car" route="route_7" depart="926.0" departLane="random" departSpeed="10" />
    <vehicle id="route_H9159" type="standard_car" route="route_9" depart="926.0" departLane="random" departSpeed="10" />
    <vehicle id="route_H9160" type="standard_car" route="route_9" depart="928.0" departLane="random" departSpeed="10" />
    <vehicle id="route_C3161" type="standard_car" route="route_3" depart="938.0" departLane="random" departSpeed="10" />
    <vehicle id="route_H11162" type="standard_car" route="route_11" depart="938.0" departLane="random" departSpeed="10" />
    <vehicle id="route_B2163" type="standard_car" route="route_2" depart="938.0" departLane="random" departSpeed="10" />
    <vehicle id="route_A1164" type="standard_car" route="route_1" depart="939.0" departLane="random" departSpeed="10" />
    <vehicle id="route_H9165" type="standard_car" route="route_9" depart="943.0" departLane="random" departSpeed="10" />
    <vehicle id="route_H8166" type="standard_car" route="route_8" depart="945.0" departLane="random" departSpeed="10" />
    <vehicle id="route_H8167" type="standard_car" route="route_8" depart="946.0" departLane="random" departSpeed="10" />
    <vehicle id="route_A1168" type="standard_car" route="route_1" depart="946.0" departLane="random" departSpeed="10" />
    <vehicle id="route_E5169" type="standard_car" route="route_5" depart="947.0" departLane="random" departSpeed="10" />
    <vehicle id="route_H9170" type="standard_car" route="route_9" depart="953.0" departLane="random" departSpeed="10" />
    <vehicle id="route_A1171" type="standard_car" route="route_1" depart="955.0" departLane="random" departSpeed="10" />
    <vehicle id="route_E5172" type="standard_car" route="route_5" depart="957.0" departLane="random" departSpeed="10" />
    <vehicle id="route_F6173" type="standard_car" route="route_6" depart="960.0" departLane="random" departSpeed="10" />
    <vehicle id="route_H8174" type="standard_car" route="route_8" depart="962.0" departLane="random" departSpeed="10" />
    <vehicle id="route_C3175" type="standard_car" route="route_3" depart="963.0" departLane="random" departSpeed="10" />
    <vehicle id="route_E5176" type="standard_car" route="route_5" depart="964.0" departLane="random" departSpeed="10" />
    <vehicle id="route_H10177" type="standard_car" route="route_10" depart="970.0" departLane="random" departSpeed="10" />
    <vehicle id="route_H8178" type="standard_car" route="route_8" depart="973.0" departLane="random" departSpeed="10" />
    <vehicle id="route_F6179" type="standard_car" route="route_6" depart="973.0" departLane="random" departSpeed="10" />
    <vehicle id="route_A1180" type="standard_car" route="route_1" depart="974.0" departLane="random" departSpeed="10" />
    <vehicle id="route_E5181" type="standard_car" route="route_5" depart="974.0" departLane="random" departSpeed="10" />
    <vehicle id="route_H10182" type="standard_car" route="route_10" depart="975.0" departLane="random" departSpeed="10" />
    <vehicle id="route_E5183" type="standard_car" route="route_5" depart="985.0" departLane="random" departSpeed="10" />
    <vehicle id="route_A1184" type="standard_car" route="route_1" depart="986.0" departLane="random" departSpeed="10" />
    <vehicle id="route_C3185" type="standard_car" route="route_3" depart="992.0" departLane="random" departSpeed="10" />
    <vehicle id="route_F6186" type="standard_car" route="route_6" depart="995.0" departLane="random" departSpeed="10" />
    <vehicle id="route_F6187" type="standard_car" route="route_6" depart="998.0" departLane="random" departSpeed="10" />
    <vehicle id="route_D4188" type="standard_car" route="route_4" depart="1000.0" departLane="random" departSpeed="10" />
    <vehicle id="route_A1189" type="standard_car" route="route_1" depart="1010.0" departLane="random" departSpeed="10" />
    <vehicle id="route_A1190" type="standard_car" route="route_1" depart="1011.0" departLane="random" departSpeed="10" />
    <vehicle id="route_B2191" type="standard_car" route="route_2" depart="1013.0" departLane="random" departSpeed="10" />
    <vehicle id="route_H10192" type="standard_car" route="route_10" depart="1013.0" departLane="random" departSpeed="10" />
    <vehicle id="route_H10193" type="standard_car" route="route_10" depart="1015.0" departLane="random" departSpeed="10" />
    <vehicle id="route_C3194" type="standard_car" route="route_3" depart="1016.0" departLane="random" departSpeed="10" />
    <vehicle id="route_B2195" type="standard_car" route="route_2" depart="1018.0" departLane="random" departSpeed="10" />
    <vehicle id="route_A1196" type="standard_car" route="route_1" depart="1020.0" departLane="random" departSpeed="10" />
    <vehicle id="route_B2197" type="standard_car" route="route_2" depart="1026.0" departLane="random" departSpeed="10" />
    <vehicle id="route_G7198" type="standard_car" route="route_7" depart="1026.0" departLane="random" departSpeed="10" />
    <vehicle id="route_D4199" type="standard_car" route="route_4" depart="1030.0" departLane="random" departSpeed="10" />
    <vehicle id="route_E5200" type="standard_car" route="route_5" depart="1035.0" departLane="random" departSpeed="10" />
    <vehicle id="route_D4201" type="standard_car" route="route_4" depart="1038.0" departLane="random" departSpeed="10" />
    <vehicle id="route_G7202" type="standard_car" route="route_7" depart="1038.0" departLane="random" departSpeed="10" />
    <vehicle id="route_E5203" type="standard_car" route="route_5" depart="1039.0" departLane="random" departSpeed="10" />
    <vehicle id="route_C3204" type="standard_car" route="route_3" depart="1040.0" departLane="random" departSpeed="10" />
    <vehicle id="route_D4205" type="standard_car" route="route_4" depart="1047.0" departLane="random" departSpeed="10" />
    <vehicle id="route_G7206" type="standard_car" route="route_7" depart="1050.0" departLane="random" departSpeed="10" />
    <vehicle id="route_D4207" type="standard_car" route="route_4" depart="1052.0" departLane="random" departSpeed="10" />
    <vehicle id="route_D4208" type="standard_car" route="route_4" depart="1054.0" departLane="random" departSpeed="10" />
    <vehicle id="route_H9209" type="standard_car" route="route_9" depart="1058.0" departLane="random" departSpeed="10" />
    <vehicle id="route_B2210" type="standard_car" route="route_2" depart="1059.0" departLane="random" departSpeed="10" />
    <vehicle id="route_D4211" type="standard_car" route="route_4" depart="1060.0" departLane="random" departSpeed="10" />
    <vehicle id="route_D4212" type="standard_car" route="route_4" depart="1067.0" departLane="random" departSpeed="10" />
    <vehicle id="route_B2213" type="standard_car" route="route_2" depart="1068.0" departLane="random" departSpeed="10" />
    <vehicle id="route_F6214" type="standard_car" route="route_6" depart="1069.0" departLane="random" departSpeed="10" />
    <vehicle id="route_D4215" type="standard_car" route="route_4" depart="1071.0" departLane="random" departSpeed="10" />
    <vehicle id="route_G7216" type="standard_car" route="route_7" depart="1075.0" departLane="random" departSpeed="10" />
    <vehicle id="route_E5217" type="standard_car" route="route_5" depart="1078.0" departLane="random" departSpeed="10" />
    <vehicle id="route_H9218" type="standard_car" route="route_9" depart="1078.0" departLane="random" departSpeed="10" />
    <vehicle id="route_F6219" type="standard_car" route="route_6" depart="1085.0" departLane="random" departSpeed="10" />
    <vehicle id="route_H8220" type="standard_car" route="route_8" depart="1085.0" departLane="random" departSpeed="10" />
    <vehicle id="route_H11221" type="standard_car" route="route_11" depart="1090.0" departLane="random" departSpeed="10" />
    <vehicle id="route_H11222" type="standard_car" route="route_11" depart="1097.0" departLane="random" departSpeed="10" />
    <vehicle id="route_B2223" type="standard_car" route="route_2" depart="1100.0" departLane="random" departSpeed="10" />
    <vehicle id="route_H11224" type="standard_car" route="route_11" depart="1101.0" departLane="random" departSpeed="10" />
    <vehicle id="route_H9225" type="standard_car" route="route_9" depart="1108.0" departLane="random" departSpeed="10" />
    <vehicle id="route_C3226" type="standard_car" route="route_3" depart="1114.0" departLane="random" departSpeed="10" />
    <vehicle id="route_A1227" type="standard_car" route="route_1" depart="1115.0" departLane="random" departSpeed="10" />
    <vehicle id="route_A1228" type="standard_car" route="route_1" depart="1118.0" departLane="random" departSpeed="10" />
    <vehicle id="route_E5229" type="standard_car" route="route_5" depart="1120.0" departLane="random" departSpeed="10" />
    <vehicle id="route_C3230" type="standard_car" route="route_3" depart="1132.0" departLane="random" departSpeed="10" />
    <vehicle id="route_B2231" type="standard_car" route="route_2" depart="1134.0" departLane="random" departSpeed="10" />
    <vehicle id="route_C3232" type="standard_car" route="route_3" depart="1135.0" departLane="random" departSpeed="10" />
    <vehicle id="route_C3233" type="standard_car" route="route_3" depart="1146.0" departLane="random" departSpeed="10" />
    <vehicle id="route_D4234" type="standard_car" route="route_4" depart="1147.0" departLane="random" departSpeed="10" />
    <vehicle id="route_E5235" type="standard_car" route="route_5" depart="1148.0" departLane="random" departSpeed="10" />