<?xml version="1.0" encoding="UTF-8"?>

<!-- generated on 2023-03-22 18:11:15 by Eclipse SUMO netedit Version 1.10.0
<configuration xmlns:xsi="http://www.w3.org/2001/XMLSchema-instance" xsi:noNamespaceSchemaLocation="http://sumo.dlr.de/xsd/netconvertConfiguration.xsd">

    <input>
        <sumo-net-file value="D:\PycharmProjects\MARL-TrafficLight-master\net\intersection_wuhu\GDUTmap.net.xml"/>
    </input>

    <output>
        <output-file value="D:\PycharmProjects\MARL-TrafficLight-master\net\intersection_wuhu\GDUTmap.net.xml"/>
    </output>

    <processing>
        <geometry.min-radius.fix.railways value="false"/>
        <geometry.max-grade.fix value="false"/>
        <offset.disable-normalization value="true"/>
        <lefthand value="false"/>
    </processing>

    <junctions>
        <no-turnarounds value="true"/>
        <junctions.corner-detail value="5"/>
        <junctions.limit-turn-speed value="5.5"/>
        <rectangular-lane-cut value="false"/>
    </junctions>

    <pedestrian>
        <walkingareas value="false"/>
    </pedestrian>

    <report>
        <aggregate-warnings value="5"/>
    </report>

</configuration>
-->

<net version="1.9" junctionCornerDetail="5" limitTurnSpeed="5.50" xmlns:xsi="http://www.w3.org/2001/XMLSchema-instance" xsi:noNamespaceSchemaLocation="http://sumo.dlr.de/xsd/net_file.xsd">

    <location netOffset="-627407.13,-3456802.17" convBoundary="1749.32,0.00,7969.60,11191.15" origBoundary="118.338335,31.238274,118.442082,31.481829" projParameter="+proj=utm +zone=50 +ellps=WGS84 +datum=WGS84 +units=m +no_defs"/>

    <type id="highway.bridleway" priority="1" numLanes="1" speed="2.78" allow="pedestrian" oneway="1" width="2.00"/>
    <type id="highway.bus_guideway" priority="1" numLanes="1" speed="27.78" allow="bus" oneway="1"/>
    <type id="highway.cycleway" priority="1" numLanes="1" speed="8.33" allow="bicycle" oneway="1" width="1.00"/>
    <type id="highway.footway" priority="1" numLanes="1" speed="2.78" allow="pedestrian" oneway="1" width="2.00"/>
    <type id="highway.ford" priority="1" numLanes="1" speed="2.78" allow="army" oneway="1"/>
    <type id="highway.living_street" priority="2" numLanes="1" speed="2.78" disallow="tram rail_urban rail rail_electric rail_fast ship" oneway="1"/>
    <type id="highway.motorway" priority="14" numLanes="2" speed="39.44" allow="private emergency authority army vip passenger hov taxi bus coach delivery truck trailer motorcycle evehicle custom1 custom2" oneway="1"/>
    <type id="highway.motorway_link" priority="9" numLanes="1" speed="22.22" allow="private emergency authority army vip passenger hov taxi bus coach delivery truck trailer motorcycle evehicle custom1 custom2" oneway="1"/>
    <type id="highway.path" priority="1" numLanes="1" speed="2.78" allow="pedestrian bicycle" oneway="1" width="2.00"/>
    <type id="highway.pedestrian" priority="1" numLanes="1" speed="2.78" allow="pedestrian" oneway="1" width="2.00"/>
    <type id="highway.primary" priority="12" numLanes="2" speed="27.78" disallow="tram rail_urban rail rail_electric rail_fast ship" oneway="1"/>
    <type id="highway.primary_link" priority="7" numLanes="1" speed="22.22" disallow="tram rail_urban rail rail_electric rail_fast ship" oneway="1"/>
    <type id="highway.raceway" priority="15" numLanes="2" speed="83.33" allow="vip" oneway="1"/>
    <type id="highway.residential" priority="3" numLanes="1" speed="13.89" disallow="tram rail_urban rail rail_electric rail_fast ship" oneway="1"/>
    <type id="highway.secondary" priority="11" numLanes="1" speed="27.78" disallow="tram rail_urban rail rail_electric rail_fast ship" oneway="1"/>
    <type id="highway.secondary_link" priority="6" numLanes="1" speed="22.22" disallow="tram rail_urban rail rail_electric rail_fast ship" oneway="1"/>
    <type id="highway.service" priority="1" numLanes="1" speed="5.56" allow="pedestrian delivery bicycle" oneway="1"/>
    <type id="highway.stairs" priority="1" numLanes="1" speed="1.39" allow="pedestrian" oneway="1" width="2.00"/>
    <type id="highway.step" priority="1" numLanes="1" speed="1.39" allow="pedestrian" oneway="1" width="2.00"/>
    <type id="highway.steps" priority="1" numLanes="1" speed="1.39" allow="pedestrian" oneway="1" width="2.00"/>
    <type id="highway.tertiary" priority="10" numLanes="1" speed="22.22" disallow="tram rail_urban rail rail_electric rail_fast ship" oneway="1"/>
    <type id="highway.tertiary_link" priority="5" numLanes="1" speed="22.22" disallow="tram rail_urban rail rail_electric rail_fast ship" oneway="1"/>
    <type id="highway.track" priority="1" numLanes="1" speed="5.56" allow="pedestrian motorcycle moped bicycle" oneway="1"/>
    <type id="highway.trunk" priority="13" numLanes="2" speed="27.78" disallow="pedestrian bicycle tram rail_urban rail rail_electric rail_fast ship" oneway="1"/>
    <type id="highway.trunk_link" priority="8" numLanes="1" speed="22.22" disallow="pedestrian bicycle tram rail_urban rail rail_electric rail_fast ship" oneway="1"/>
    <type id="highway.unclassified" priority="4" numLanes="1" speed="13.89" disallow="tram rail_urban rail rail_electric rail_fast ship" oneway="1"/>
    <type id="highway.unsurfaced" priority="1" numLanes="1" speed="8.33" disallow="tram rail_urban rail rail_electric rail_fast ship" oneway="1"/>
    <type id="railway.highspeed" priority="21" numLanes="1" speed="69.44" allow="rail_fast" oneway="1"/>
    <type id="railway.light_rail" priority="19" numLanes="1" speed="27.78" allow="rail_urban" oneway="1"/>
    <type id="railway.preserved" priority="16" numLanes="1" speed="27.78" allow="rail" oneway="1"/>
    <type id="railway.rail" priority="20" numLanes="1" speed="44.44" allow="rail" oneway="1"/>
    <type id="railway.subway" priority="18" numLanes="1" speed="27.78" allow="rail_urban" oneway="1"/>
    <type id="railway.tram" priority="17" numLanes="1" speed="13.89" allow="tram" oneway="1"/>

    <edge id=":4294053262_0" function="internal">
        <lane id=":4294053262_0_0" index="0" disallow="tram rail_urban rail rail_electric rail_fast ship" speed="6.47" length="9.03" shape="2748.18,6733.81 2745.71,6733.98 2743.89,6734.89 2742.73,6736.57 2742.24,6739.00"/>
    </edge>
    <edge id=":4294053262_1" function="internal">
        <lane id=":4294053262_1_0" index="0" disallow="tram rail_urban rail rail_electric rail_fast ship" speed="6.58" length="9.12" shape="2743.09,6724.62 2743.30,6727.08 2744.26,6728.90 2745.97,6730.08 2748.43,6730.62"/>
    </edge>
    <edge id=":4294053262_2" function="internal">
        <lane id=":4294053262_2_0" index="0" disallow="tram rail_urban rail rail_electric rail_fast ship" speed="27.78" length="14.40" shape="2743.09,6724.62 2742.24,6739.00"/>
        <lane id=":4294053262_2_1" index="1" disallow="tram rail_urban rail rail_electric rail_fast ship" speed="27.78" length="14.40" shape="2739.90,6724.43 2739.04,6738.81"/>
    </edge>
    <edge id=":4294053268_0" function="internal">
        <lane id=":4294053268_0_0" index="0" disallow="tram rail_urban rail rail_electric rail_fast ship" speed="6.77" length="9.37" shape="3013.39,6684.09 3011.60,6682.41 3009.62,6681.69 3007.46,6681.92 3005.12,6683.11"/>
    </edge>
    <edge id=":4294053268_1" function="internal">
        <lane id=":4294053268_1_0" index="0" disallow="tram rail_urban rail rail_electric rail_fast ship" speed="13.89" length="14.41" shape="3013.39,6684.09 3004.49,6672.76"/>
    </edge>
    <edge id=":4294053268_2" function="internal">
        <lane id=":4294053268_2_0" index="0" disallow="tram rail_urban rail rail_electric rail_fast ship" speed="3.65" length="2.34" shape="3013.39,6684.09 3013.28,6682.65 3013.66,6681.84"/>
    </edge>
    <edge id=":4294053268_8" function="internal">
        <lane id=":4294053268_8_0" index="0" disallow="tram rail_urban rail rail_electric rail_fast ship" speed="3.65" length="2.34" shape="3013.66,6681.84 3014.53,6681.66 3015.90,6682.11"/>
    </edge>
    <edge id=":4294053268_3" function="internal">
        <lane id=":4294053268_3_0" index="0" disallow="tram rail_urban rail rail_electric rail_fast ship" speed="13.89" length="14.41" shape="3007.00,6670.78 3015.90,6682.11"/>
    </edge>
    <edge id=":4294053268_4" function="internal">
        <lane id=":4294053268_4_0" index="0" disallow="tram rail_urban rail rail_electric rail_fast ship" speed="7.89" length="5.94" shape="3007.00,6670.78 3009.00,6674.24 3009.21,6676.18"/>
    </edge>
    <edge id=":4294053268_5" function="internal">
        <lane id=":4294053268_5_0" index="0" disallow="tram rail_urban rail rail_electric rail_fast ship" speed="3.65" length="2.34" shape="3007.00,6670.78 3007.11,6672.22 3006.73,6673.03"/>
    </edge>
    <edge id=":4294053268_9" function="internal">
        <lane id=":4294053268_9_0" index="0" disallow="tram rail_urban rail rail_electric rail_fast ship" speed="7.89" length="8.50" shape="3009.21,6676.18 3009.35,6677.45 3008.05,6680.41 3005.12,6683.11"/>
    </edge>
    <edge id=":4294053268_10" function="internal">
        <lane id=":4294053268_10_0" index="0" disallow="tram rail_urban rail rail_electric rail_fast ship" speed="3.65" length="2.34" shape="3006.73,6673.03 3005.86,6673.21 3004.49,6672.76"/>
    </edge>
    <edge id=":4294053268_6" function="internal">
        <lane id=":4294053268_6_0" index="0" disallow="tram rail_urban rail rail_electric rail_fast ship" speed="6.37" length="9.04" shape="3003.30,6680.48 3005.14,6678.78 3005.95,6676.93 3005.73,6674.92 3004.49,6672.76"/>
    </edge>
    <edge id=":4294053268_7" function="internal">
        <lane id=":4294053268_7_0" index="0" disallow="tram rail_urban rail rail_electric rail_fast ship" speed="8.22" length="14.29" shape="3003.30,6680.48 3006.85,6678.69 3010.13,6678.36 3013.15,6679.51 3015.90,6682.11"/>
    </edge>
    <edge id=":4294053281_0" function="internal">
        <lane id=":4294053281_0_0" index="0" disallow="tram rail_urban rail rail_electric rail_fast ship" speed="13.89" length="14.40" shape="2818.79,6739.26 2804.43,6738.15"/>
    </edge>
    <edge id=":4294053281_1" function="internal">
        <lane id=":4294053281_1_0" index="0" disallow="tram rail_urban rail rail_electric rail_fast ship" speed="7.98" length="5.93" shape="2818.79,6739.26 2814.98,6738.41 2813.33,6737.24"/>
    </edge>
    <edge id=":4294053281_6" function="internal">
        <lane id=":4294053281_6_0" index="0" disallow="tram rail_urban rail rail_electric rail_fast ship" speed="7.98" length="8.30" shape="2813.33,6737.24 2812.36,6736.55 2810.95,6733.66 2810.74,6729.77"/>
    </edge>
    <edge id=":4294053281_2" function="internal">
        <lane id=":4294053281_2_0" index="0" disallow="tram rail_urban rail rail_electric rail_fast ship" speed="6.48" length="9.03" shape="2813.92,6730.04 2814.06,6732.52 2814.96,6734.35 2816.62,6735.53 2819.03,6736.07"/>
    </edge>
    <edge id=":4294053281_3" function="internal">
        <lane id=":4294053281_3_0" index="0" disallow="tram rail_urban rail rail_electric rail_fast ship" speed="8.03" length="14.21" shape="2813.92,6730.04 2813.04,6733.84 2811.17,6736.46 2808.30,6737.90 2804.43,6738.15"/>
    </edge>
    <edge id=":4294053281_4" function="internal">
        <lane id=":4294053281_4_0" index="0" disallow="tram rail_urban rail rail_electric rail_fast ship" speed="6.55" length="9.08" shape="2804.68,6734.96 2807.14,6734.80 2808.98,6733.88 2810.17,6732.20 2810.74,6729.77"/>
    </edge>
    <edge id=":4294053281_5" function="internal">
        <lane id=":4294053281_5_0" index="0" disallow="tram rail_urban rail rail_electric rail_fast ship" speed="13.89" length="14.40" shape="2804.68,6734.96 2819.03,6736.07"/>
    </edge>
    <edge id=":4294053283_0" function="internal">
        <lane id=":4294053283_0_0" index="0" disallow="tram rail_urban rail rail_electric rail_fast ship" speed="3.65" length="4.67" shape="2964.12,6564.52 2965.02,6563.38 2965.84,6563.04 2966.61,6563.51 2967.32,6564.76"/>
    </edge>
    <edge id=":4294053287_0" function="internal">
        <lane id=":4294053287_0_0" index="0" disallow="tram rail_urban rail rail_electric rail_fast ship" speed="13.89" length="0.10" shape="2971.84,6610.31 2971.84,6610.31"/>
    </edge>
    <edge id=":4294053287_1" function="internal">
        <lane id=":4294053287_1_0" index="0" disallow="tram rail_urban rail rail_electric rail_fast ship" speed="3.65" length="2.34" shape="2971.84,6610.31 2972.26,6608.93 2972.92,6608.33"/>
    </edge>
    <edge id=":4294053287_4" function="internal">
        <lane id=":4294053287_4_0" index="0" disallow="tram rail_urban rail rail_electric rail_fast ship" speed="3.65" length="2.34" shape="2972.92,6608.33 2973.80,6608.48 2974.90,6609.41"/>
    </edge>
    <edge id=":4294053287_2" function="internal">
        <lane id=":4294053287_2_0" index="0" disallow="tram rail_urban rail rail_electric rail_fast ship" speed="13.89" length="0.10" shape="2974.90,6609.41 2974.90,6609.41"/>
    </edge>
    <edge id=":4294053287_3" function="internal">
        <lane id=":4294053287_3_0" index="0" disallow="tram rail_urban rail rail_electric rail_fast ship" speed="3.65" length="2.34" shape="2974.90,6609.41 2974.48,6610.79 2973.82,6611.39"/>
    </edge>
    <edge id=":4294053287_5" function="internal">
        <lane id=":4294053287_5_0" index="0" disallow="tram rail_urban rail rail_electric rail_fast ship" speed="3.65" length="2.34" shape="2973.82,6611.39 2972.94,6611.24 2971.84,6610.31"/>
    </edge>
    <edge id=":4294053288_0" function="internal">
        <lane id=":4294053288_0_0" index="0" disallow="tram rail_urban rail rail_electric rail_fast ship" speed="8.20" length="11.05" shape="2992.45,6653.11 2990.85,6651.27 2988.66,6650.17 2985.90,6649.79 2982.55,6650.14"/>
    </edge>
    <edge id=":4294053288_1" function="internal">
        <lane id=":4294053288_1_0" index="0" disallow="tram rail_urban rail rail_electric rail_fast ship" speed="13.89" length="14.80" shape="2992.45,6653.11 2984.87,6640.40"/>
    </edge>
    <edge id=":4294053288_2" function="internal">
        <lane id=":4294053288_2_0" index="0" disallow="tram rail_urban rail rail_electric rail_fast ship" speed="3.65" length="2.34" shape="2992.45,6653.11 2992.52,6651.67 2993.01,6650.92"/>
    </edge>
    <edge id=":4294053288_8" function="internal">
        <lane id=":4294053288_8_0" index="0" disallow="tram rail_urban rail rail_electric rail_fast ship" speed="3.65" length="2.34" shape="2993.01,6650.92 2993.90,6650.85 2995.20,6651.47"/>
    </edge>
    <edge id=":4294053288_3" function="internal">
        <lane id=":4294053288_3_0" index="0" disallow="tram rail_urban rail rail_electric rail_fast ship" speed="13.89" length="14.80" shape="2987.62,6638.76 2995.20,6651.47"/>
    </edge>
    <edge id=":4294053288_4" function="internal">
        <lane id=":4294053288_4_0" index="0" disallow="tram rail_urban rail rail_electric rail_fast ship" speed="7.53" length="6.22" shape="2987.62,6638.76 2989.38,6642.96 2989.25,6644.62"/>
    </edge>
    <edge id=":4294053288_5" function="internal">
        <lane id=":4294053288_5_0" index="0" disallow="tram rail_urban rail rail_electric rail_fast ship" speed="3.65" length="2.34" shape="2987.62,6638.76 2987.54,6640.20 2987.06,6640.96"/>
    </edge>
    <edge id=":4294053288_9" function="internal">
        <lane id=":4294053288_9_0" index="0" disallow="tram rail_urban rail rail_electric rail_fast ship" speed="7.53" length="9.49" shape="2989.25,6644.62 2989.12,6646.25 2986.84,6648.65 2982.55,6650.14"/>
    </edge>
    <edge id=":4294053288_10" function="internal">
        <lane id=":4294053288_10_0" index="0" disallow="tram rail_urban rail rail_electric rail_fast ship" speed="3.65" length="2.34" shape="2987.06,6640.96 2986.17,6641.02 2984.87,6640.40"/>
    </edge>
    <edge id=":4294053288_6" function="internal">
        <lane id=":4294053288_6_0" index="0" disallow="tram rail_urban rail rail_electric rail_fast ship" speed="5.89" length="9.11" shape="2981.93,6647.00 2984.42,6646.14 2985.74,6644.75 2985.89,6642.84 2984.87,6640.40"/>
    </edge>
    <edge id=":4294053288_7" function="internal">
        <lane id=":4294053288_7_0" index="0" disallow="tram rail_urban rail rail_electric rail_fast ship" speed="9.48" length="14.99" shape="2981.93,6647.00 2986.32,6646.58 2989.99,6647.18 2992.95,6648.81 2995.20,6651.47"/>
    </edge>
    <edge id=":4770550708_0" function="internal">
        <lane id=":4770550708_0_0" index="0" disallow="tram rail_urban rail rail_electric rail_fast ship" speed="7.68" length="10.82" shape="2873.01,6700.88 2870.07,6701.63 2867.89,6703.01 2866.48,6705.04 2865.83,6707.69"/>
    </edge>
    <edge id=":4770550708_1" function="internal">
        <lane id=":4770550708_1_0" index="0" speed="13.89" length="15.51" shape="2873.01,6700.88 2869.20,6701.28 2865.28,6701.52 2861.35,6701.56 2857.53,6701.41"/>
    </edge>
    <edge id=":4770550708_2" function="internal">
        <lane id=":4770550708_2_0" index="0" disallow="tram rail_urban rail rail_electric rail_fast ship" speed="7.67" length="6.47" shape="2873.01,6700.88 2868.73,6700.82 2866.77,6699.84"/>
    </edge>
    <edge id=":4770550708_12" function="internal">
        <lane id=":4770550708_12_0" index="0" disallow="tram rail_urban rail rail_electric rail_fast ship" speed="7.67" length="8.62" shape="2866.77,6699.84 2865.81,6699.36 2864.23,6696.49 2864.00,6692.22"/>
    </edge>
    <edge id=":4770550708_3" function="internal">
        <lane id=":4770550708_3_0" index="0" disallow="tram rail_urban rail rail_electric rail_fast ship" speed="6.09" length="9.06" shape="2867.18,6692.51 2867.32,6695.07 2868.27,6696.79 2870.03,6697.67 2872.59,6697.71"/>
    </edge>
    <edge id=":4770550708_4" function="internal">
        <lane id=":4770550708_4_0" index="0" disallow="tram rail_urban rail rail_electric rail_fast ship" speed="13.89" length="15.25" shape="2867.18,6692.51 2865.83,6707.69"/>
    </edge>
    <edge id=":4770550708_5" function="internal">
        <lane id=":4770550708_5_0" index="0" disallow="tram rail_urban rail rail_electric rail_fast ship" speed="8.24" length="6.41" shape="2867.18,6692.51 2866.26,6696.63 2865.05,6698.44"/>
    </edge>
    <edge id=":4770550708_13" function="internal">
        <lane id=":4770550708_13_0" index="0" disallow="tram rail_urban rail rail_electric rail_fast ship" speed="8.24" length="8.50" shape="2865.05,6698.44 2864.34,6699.49 2861.43,6701.08 2857.53,6701.41"/>
    </edge>
    <edge id=":4770550708_6" function="internal">
        <lane id=":4770550708_6_0" index="0" disallow="tram rail_urban rail rail_electric rail_fast ship" speed="6.80" length="9.82" shape="2857.75,6698.22 2860.27,6697.99 2862.15,6696.92 2863.39,6694.99 2864.00,6692.22"/>
    </edge>
    <edge id=":4770550708_7" function="internal">
        <lane id=":4770550708_7_0" index="0" speed="13.89" length="14.88" shape="2857.75,6698.22 2861.47,6698.38 2865.18,6698.33 2868.88,6698.11 2872.59,6697.71"/>
    </edge>
    <edge id=":4770550708_8" function="internal">
        <lane id=":4770550708_8_0" index="0" disallow="tram rail_urban rail rail_electric rail_fast ship" speed="7.97" length="5.48" shape="2857.75,6698.22 2861.58,6699.04 2862.86,6699.95"/>
    </edge>
    <edge id=":4770550708_14" function="internal">
        <lane id=":4770550708_14_0" index="0" disallow="tram rail_urban rail rail_electric rail_fast ship" speed="7.97" length="8.78" shape="2862.86,6699.95 2864.20,6700.90 2865.62,6703.78 2865.83,6707.69"/>
    </edge>
    <edge id=":4770550708_9" function="internal">
        <lane id=":4770550708_9_0" index="0" disallow="tram rail_urban rail rail_electric rail_fast ship" speed="6.47" length="9.03" shape="2862.64,6707.41 2862.51,6704.93 2861.61,6703.11 2859.95,6701.93 2857.53,6701.41"/>
    </edge>
    <edge id=":4770550708_10" function="internal">
        <lane id=":4770550708_10_0" index="0" disallow="tram rail_urban rail rail_electric rail_fast ship" speed="13.89" length="15.25" shape="2862.64,6707.41 2864.00,6692.22"/>
    </edge>
    <edge id=":4770550708_11" function="internal">
        <lane id=":4770550708_11_0" index="0" disallow="tram rail_urban rail rail_electric rail_fast ship" speed="9.00" length="6.03" shape="2862.64,6707.41 2863.55,6703.61 2864.74,6701.85"/>
    </edge>
    <edge id=":4770550708_15" function="internal">
        <lane id=":4770550708_15_0" index="0" disallow="tram rail_urban rail rail_electric rail_fast ship" speed="9.00" length="9.16" shape="2864.74,6701.85 2865.51,6700.73 2868.52,6698.76 2872.59,6697.71"/>
    </edge>
    <edge id=":4770550709_0" function="internal">
        <lane id=":4770550709_0_0" index="0" disallow="tram rail_urban rail rail_electric rail_fast ship" speed="13.89" length="17.75" shape="2927.64,6747.64 2909.94,6746.28"/>
    </edge>
    <edge id=":4770550709_1" function="internal">
        <lane id=":4770550709_1_0" index="0" disallow="tram rail_urban rail rail_electric rail_fast ship" speed="7.48" length="8.16" shape="2927.64,6747.64 2921.14,6746.45 2919.95,6745.44"/>
    </edge>
    <edge id=":4770550709_6" function="internal">
        <lane id=":4770550709_6_0" index="0" disallow="tram rail_urban rail rail_electric rail_fast ship" speed="7.48" length="12.14" shape="2919.95,6745.44 2918.43,6744.16 2919.50,6740.78 2924.37,6736.31"/>
    </edge>
    <edge id=":4770550709_2" function="internal">
        <lane id=":4770550709_2_0" index="0" disallow="tram rail_urban rail rail_electric rail_fast ship" speed="5.46" length="9.99" shape="2926.28,6738.88 2923.88,6741.08 2923.35,6742.74 2924.69,6743.86 2927.88,6744.45"/>
    </edge>
    <edge id=":4770550709_3" function="internal">
        <lane id=":4770550709_3_0" index="0" disallow="tram rail_urban rail rail_electric rail_fast ship" speed="13.89" length="18.20" shape="2926.28,6738.88 2922.73,6741.35 2918.47,6743.84 2914.03,6745.70 2909.94,6746.28"/>
    </edge>
    <edge id=":4770550709_4" function="internal">
        <lane id=":4770550709_4_0" index="0" disallow="tram rail_urban rail rail_electric rail_fast ship" speed="13.89" length="16.02" shape="2910.18,6743.09 2913.94,6742.61 2917.64,6740.96 2921.16,6738.68 2924.37,6736.31"/>
    </edge>
    <edge id=":4770550709_5" function="internal">
        <lane id=":4770550709_5_0" index="0" disallow="tram rail_urban rail rail_electric rail_fast ship" speed="13.89" length="17.75" shape="2910.18,6743.09 2927.88,6744.45"/>
    </edge>
    <edge id=":8538168943_0" function="internal">
        <lane id=":8538168943_0_0" index="0" disallow="tram rail_urban rail rail_electric rail_fast ship" speed="13.89" length="14.40" shape="2868.36,6743.08 2854.01,6741.97"/>
    </edge>
    <edge id=":8538168943_1" function="internal">
        <lane id=":8538168943_1_0" index="0" disallow="tram rail_urban rail rail_electric rail_fast ship" speed="7.98" length="5.93" shape="2868.36,6743.08 2864.55,6742.23 2862.90,6741.06"/>
    </edge>
    <edge id=":8538168943_6" function="internal">
        <lane id=":8538168943_6_0" index="0" disallow="tram rail_urban rail rail_electric rail_fast ship" speed="7.98" length="8.31" shape="2862.90,6741.06 2861.94,6740.37 2860.53,6737.48 2860.32,6733.58"/>
    </edge>
    <edge id=":8538168943_2" function="internal">
        <lane id=":8538168943_2_0" index="0" disallow="tram rail_urban rail rail_electric rail_fast ship" speed="6.48" length="9.03" shape="2863.50,6733.86 2863.64,6736.34 2864.53,6738.17 2866.19,6739.35 2868.61,6739.89"/>
    </edge>
    <edge id=":8538168943_3" function="internal">
        <lane id=":8538168943_3_0" index="0" disallow="tram rail_urban rail rail_electric rail_fast ship" speed="8.04" length="14.21" shape="2863.50,6733.86 2862.62,6737.66 2860.74,6740.28 2857.87,6741.72 2854.01,6741.97"/>
    </edge>
    <edge id=":8538168943_4" function="internal">
        <lane id=":8538168943_4_0" index="0" disallow="tram rail_urban rail rail_electric rail_fast ship" speed="6.55" length="9.09" shape="2854.25,6738.78 2856.72,6738.62 2858.55,6737.70 2859.75,6736.02 2860.32,6733.58"/>
    </edge>
    <edge id=":8538168943_5" function="internal">
        <lane id=":8538168943_5_0" index="0" disallow="tram rail_urban rail rail_electric rail_fast ship" speed="13.89" length="14.40" shape="2854.25,6738.78 2868.61,6739.89"/>
    </edge>
    <edge id=":8538168944_0" function="internal">
        <lane id=":8538168944_0_0" index="0" disallow="tram rail_urban rail rail_electric rail_fast ship" speed="13.89" length="14.41" shape="2785.25,6736.67 2770.88,6735.57"/>
    </edge>
    <edge id=":8538168944_1" function="internal">
        <lane id=":8538168944_1_0" index="0" disallow="tram rail_urban rail rail_electric rail_fast ship" speed="8.20" length="5.82" shape="2785.25,6736.67 2781.54,6735.83 2779.90,6734.66"/>
    </edge>
    <edge id=":8538168944_6" function="internal">
        <lane id=":8538168944_6_0" index="0" disallow="tram rail_urban rail rail_electric rail_fast ship" speed="8.20" length="8.46" shape="2779.90,6734.66 2778.92,6733.96 2777.37,6731.05 2776.90,6727.12"/>
    </edge>
    <edge id=":8538168944_2" function="internal">
        <lane id=":8538168944_2_0" index="0" disallow="tram rail_urban rail rail_electric rail_fast ship" speed="6.75" length="9.35" shape="2780.10,6727.17 2780.40,6729.77 2781.40,6731.69 2783.10,6732.93 2785.49,6733.48"/>
    </edge>
    <edge id=":8538168944_3" function="internal">
        <lane id=":8538168944_3_0" index="0" disallow="tram rail_urban rail rail_electric rail_fast ship" speed="7.90" length="14.43" shape="2780.10,6727.17 2779.47,6731.10 2777.72,6733.82 2774.86,6735.30 2770.88,6735.57"/>
    </edge>
    <edge id=":8538168944_4" function="internal">
        <lane id=":8538168944_4_0" index="0" disallow="tram rail_urban rail rail_electric rail_fast ship" speed="6.38" length="9.04" shape="2771.13,6732.38 2773.62,6732.21 2775.41,6731.28 2776.51,6729.58 2776.90,6727.12"/>
    </edge>
    <edge id=":8538168944_5" function="internal">
        <lane id=":8538168944_5_0" index="0" disallow="tram rail_urban rail rail_electric rail_fast ship" speed="13.89" length="14.41" shape="2771.13,6732.38 2785.49,6733.48"/>
    </edge>
    <edge id=":8538168948_0" function="internal">
        <lane id=":8538168948_0_0" index="0" disallow="tram rail_urban rail rail_electric rail_fast ship" speed="3.65" length="4.67" shape="2791.64,6550.49 2792.53,6549.36 2793.36,6549.03 2794.13,6549.49 2794.82,6550.75"/>
    </edge>
    <edge id=":8538168950_0" function="internal">
        <lane id=":8538168950_0_0" index="0" disallow="tram rail_urban rail rail_electric rail_fast ship" speed="3.65" length="4.67" shape="2876.01,6557.33 2876.91,6556.20 2877.74,6555.88 2878.50,6556.35 2879.19,6557.61"/>
    </edge>
    <edge id=":8538168951_0" function="internal">
        <lane id=":8538168951_0_0" index="0" disallow="tram rail_urban rail rail_electric rail_fast ship" speed="13.89" length="0.10" shape="2873.55,6620.98 2873.55,6620.98"/>
    </edge>
    <edge id=":8538168951_1" function="internal">
        <lane id=":8538168951_1_0" index="0" disallow="tram rail_urban rail rail_electric rail_fast ship" speed="3.65" length="2.34" shape="2873.55,6620.98 2872.65,6622.11 2871.82,6622.43"/>
    </edge>
    <edge id=":8538168951_3" function="internal">
        <lane id=":8538168951_3_0" index="0" disallow="tram rail_urban rail rail_electric rail_fast ship" speed="3.65" length="2.34" shape="2871.82,6622.43 2871.06,6621.96 2870.37,6620.70"/>
    </edge>
    <edge id=":8538168951_2" function="internal">
        <lane id=":8538168951_2_0" index="0" disallow="tram rail_urban rail rail_electric rail_fast ship" speed="13.89" length="0.10" shape="2870.37,6620.70 2870.37,6620.70"/>
    </edge>
    <edge id=":8538168952_0" function="internal">
        <lane id=":8538168952_0_0" index="0" disallow="tram rail_urban rail rail_electric rail_fast ship" speed="6.97" length="9.73" shape="2876.11,6660.39 2873.43,6660.77 2871.44,6661.84 2870.14,6663.62 2869.54,6666.10"/>
    </edge>
    <edge id=":8538168952_1" function="internal">
        <lane id=":8538168952_1_0" index="0" speed="13.89" length="14.96" shape="2876.11,6660.39 2872.37,6660.37 2868.64,6660.24 2864.91,6660.00 2861.18,6659.65"/>
    </edge>
    <edge id=":8538168952_2" function="internal">
        <lane id=":8538168952_2_0" index="0" disallow="tram rail_urban rail rail_electric rail_fast ship" speed="7.84" length="6.21" shape="2876.11,6660.39 2872.10,6659.85 2870.27,6658.70"/>
    </edge>
    <edge id=":8538168952_12" function="internal">
        <lane id=":8538168952_12_0" index="0" disallow="tram rail_urban rail rail_electric rail_fast ship" speed="7.84" length="8.36" shape="2870.27,6658.70 2869.36,6658.13 2867.87,6655.26 2867.65,6651.21"/>
    </edge>
    <edge id=":8538168952_3" function="internal">
        <lane id=":8538168952_3_0" index="0" disallow="tram rail_urban rail rail_electric rail_fast ship" speed="6.31" length="9.04" shape="2870.84,6651.50 2870.98,6654.01 2871.90,6655.79 2873.60,6656.85 2876.09,6657.19"/>
    </edge>
    <edge id=":8538168952_4" function="internal">
        <lane id=":8538168952_4_0" index="0" disallow="tram rail_urban rail rail_electric rail_fast ship" speed="13.89" length="14.66" shape="2870.84,6651.50 2869.54,6666.10"/>
    </edge>
    <edge id=":8538168952_5" function="internal">
        <lane id=":8538168952_5_0" index="0" disallow="tram rail_urban rail rail_electric rail_fast ship" speed="8.02" length="6.09" shape="2870.84,6651.50 2869.93,6655.43 2868.73,6657.10"/>
    </edge>
    <edge id=":8538168952_13" function="internal">
        <lane id=":8538168952_13_0" index="0" disallow="tram rail_urban rail rail_electric rail_fast ship" speed="8.02" length="8.39" shape="2868.73,6657.10 2868.02,6658.10 2865.10,6659.50 2861.18,6659.65"/>
    </edge>